 Abaqus/Standard 3DEXPERIENCE R2016x                  DATE 21-Jun-2019 TIME 17:02:28
 SUMMARY OF JOB INFORMATION:
 STEP  INC ATT SEVERE EQUIL TOTAL  TOTAL      STEP       INC OF       DOF    IF
               DISCON ITERS ITERS  TIME/    TIME/LPF    TIME/LPF    MONITOR RIKS
               ITERS               FREQ
   1     1   1     0     1     1  0.000      2.22e-016  2.220e-016
                          
 THE ANALYSIS HAS COMPLETED SUCCESSFULLY
